<?xml version="1.0" encoding="UTF-8"?>

<!-- generated on 2025-11-06 23:44:54 by Eclipse SUMO netedit Version 1.24.0
-->

<additional xmlns:xsi="http://www.w3.org/2001/XMLSchema-instance" xsi:noNamespaceSchemaLocation="http://sumo.dlr.de/xsd/additional_file.xsd">
    <!-- Detectors -->
    <laneAreaDetector id="e2_0" lane="E0_0" pos="0" length="124" period="1" file="e2_0.xml"/>
    <laneAreaDetector id="e2_1" lane="-E0_0" pos="0" length="124" period="1" file="e2_1.xml"/>
    <laneAreaDetector id="e2_2" lane="-E1_0" pos="0" length="125" period="1" file="e2_2.xml"/>
    <laneAreaDetector id="e2_3" lane="E2_0" pos="0" length="123" period="1" file="e2_3.xml"/>
    <laneAreaDetector id="e2_4" lane="E1_0" pos="0" length="124" period="1" file="e2_4.xml"/>
    <laneAreaDetector id="e2_5" lane="-E2_0" pos="0" length="123" period="1" file="e2_5.xml"/>
    <laneAreaDetector id="e2_6" lane="-E3_0" pos="0" length="124" period="1" file="e2_6.xml"/>
    <laneAreaDetector id="e2_7" lane="E3_0" pos="0" length="124" period="1" file="e2_7.xml"/>
</additional>
