<?xml version="1.0" encoding="UTF-8"?>

<!-- generated on 2025-11-09 14:38:03 by Eclipse SUMO netedit Version 1.24.0
-->

<additional xmlns:xsi="http://www.w3.org/2001/XMLSchema-instance" xsi:noNamespaceSchemaLocation="http://sumo.dlr.de/xsd/additional_file.xsd">
    <!-- Detectors -->
    <laneAreaDetector id="e2_0" lane="E0_0" pos="0.00" length="124.00" period="1.00" file="e2_0.xml"/>
    <laneAreaDetector id="e2_4" lane="E1_0" pos="0.00" length="124.00" period="1.00" file="e2_4.xml"/>
    <laneAreaDetector id="e2_5" lane="-E2_0" pos="0.00" length="123.00" period="1.00" file="e2_5.xml"/>
    <laneAreaDetector id="e2_6" lane="-E3_0" pos="0.00" length="124.00" period="1.00" file="e2_6.xml"/>
</additional>
