<?xml version="1.0" encoding="UTF-8"?>

<!-- generated on 2025-11-07 00:01:38 by Eclipse SUMO netedit Version 1.24.0
-->

<routes xmlns:xsi="http://www.w3.org/2001/XMLSchema-instance" xsi:noNamespaceSchemaLocation="http://sumo.dlr.de/xsd/routes_file.xsd">
    <!-- Vehicles, persons and containers (sorted by depart) -->
    <flow id="f_0" begin="0.00" from="E0" to="E2" end="3600.00" vehsPerHour="1800"/>
    <flow id="f_1" type="DEFAULT_TAXITYPE" begin="0.00" from="E0" to="-E1" end="3600.00" vehsPerHour="1800"/>
    <flow id="f_2" type="DEFAULT_TAXITYPE" begin="0.00" from="-E2" to="-E1" end="3600.00" vehsPerHour="1800"/>
    <flow id="f_3" type="DEFAULT_BIKETYPE" begin="0.00" from="-E2" to="-E1" end="3600.00" vehsPerHour="1800"/>
    <flow id="f_4" type="DEFAULT_TAXITYPE" begin="0.00" from="E1" to="E3" end="3600.00" vehsPerHour="1800"/>
    <flow id="f_5" begin="0.00" from="E1" to="-E0" end="3600.00" vehsPerHour="1800"/>
    <flow id="f_6" type="DEFAULT_BIKETYPE" begin="0.00" from="E1" to="E2" end="3600.00" vehsPerHour="1800"/>
    <flow id="f_7" type="DEFAULT_BIKETYPE" begin="0.00" from="-E3" to="-E1" end="3600.00" vehsPerHour="1800"/>
    <flow id="f_8" begin="0.00" from="-E3" to="E2" end="3600.00" vehsPerHour="1800"/>
    <flow id="f_9" type="DEFAULT_TAXITYPE" begin="0.00" from="-E3" to="-E0" end="3600.00" vehsPerHour="1800"/>
</routes>
