<?xml version="1.0" encoding="UTF-8"?>

<!-- generated on 2025-11-09 14:38:05 by Eclipse SUMO sumo Version 1.24.0
-->

<sumoConfiguration xmlns:xsi="http://www.w3.org/2001/XMLSchema-instance" xsi:noNamespaceSchemaLocation="http://sumo.dlr.de/xsd/sumoConfiguration.xsd">

    <input>
        <net-file value="traffic.net.xml"/>
        <route-files value="traffic.rou.xml"/>
        <additional-files value="traffic.add.xml"/>
    </input>

</sumoConfiguration>
